test/data/COMAHUE_SIP.raw
@!IC, SBASE,REV,XFRRAT,NXFRAT,BASFRQ
0,   100.00, 34,     1,     1, 50.00     / PSS(R)E-34.9    SUN, NOV 02 2025  14:27
PICO HÁBIL DIURNO DEL VERANO 25/26 DEMANDA SADI 30960 MW

GENERAL, THRSHZ=0.0001, PQBRAK=0.7, BLOWUP=5.0
GAUSS, ITMX=100, ACCP=1.6, ACCQ=1.6, ACCM=1.0, TOL=0.0001
NEWTON, ITMXN=30, ACCN=1.0, TOLN=0.1, VCTOLQ=0.1, VCTOLV=0.00001, DVLIM=0.99, NDVFCT=0.99
ADJUST, ADJTHR=0.005, ACCTAP=1.0, TAPLIM=0.05, SWVBND=100.0, MXTPSS=99, MXSWIM=10
TYSL, ITMXTY=20, ACCTY=1.0, TOLTY=0.00001
SOLVER, FNSL, ACTAPS=1, AREAIN=0, PHSHFT=0, DCTAPS=1, SWSHNT=1, FLATST=0, VARLIM=0, NONDIV=0
RATING, 1, "RATE1 ", "RATING SET 1                    "
RATING, 2, "RATE2 ", "RATING SET 2                    "
RATING, 3, "RATE3 ", "RATING SET 3                    "
RATING, 4, "RATE4 ", "RATING SET 4                    "
RATING, 5, "RATE5 ", "RATING SET 5                    "
RATING, 6, "RATE6 ", "RATING SET 6                    "
RATING, 7, "RATE7 ", "RATING SET 7                    "
RATING, 8, "RATE8 ", "RATING SET 8                    "
RATING, 9, "RATE9 ", "RATING SET 9                    "
RATING,10, "RATE10", "RATING SET 10                   "
RATING,11, "RATE11", "RATING SET 11                   "
RATING,12, "RATE12", "RATING SET 12                   "
0 / END OF SYSTEM-WIDE DATA, BEGIN BUS DATA
@!   I,'NAME        ', BASKV, IDE,AREA,ZONE,OWNER, VM,        VA,    NVHI,   NVLO,   EVHI,   EVLO
    10,'NPMADRYN    ', 500.0000,1,  21,  51,  10,1.02532,   7.5779,1.10000,0.90000,1.10000,0.90000
    11,'NPMD.CHL    ', 500.0000,1,  21,  51,  10,0.99417,  17.6330,1.10000,0.90000,1.10000,0.90000
    12,'SCN_500     ', 500.0000,1,  21,  52,  10,1.01116,  10.4770,1.10000,0.90000,1.10000,0.90000
    15,'RSCRUZ      ', 500.0000,1,  21,  52,  10,1.00542,   9.5989,1.10000,0.90000,1.10000,0.90000
    19,'ESPERANZ    ', 500.0000,1,  21,  52,  10,1.00351,   9.2453,1.10000,0.90000,1.10000,0.90000
   100,'FUTAL330    ', 330.0000,1,  21,  51,  10,1.04766,  32.0126,1.10000,0.90000,1.10000,0.90000
   102,'FUTAHI01    ',  13.8000,2,  21,  51,   6,1.04000,  36.0319,1.10000,0.90000,1.10000,0.90000
   104,'FUTAHI02    ',  13.8000,2,  21,  51,   6,1.04000,  36.0319,1.10000,0.90000,1.10000,0.90000
   106,'FUTAHI03    ',  13.8000,2,  21,  51,   6,1.04000,  36.0319,1.10000,0.90000,1.10000,0.90000
   108,'FUTAHI04    ',  13.8000,2,  21,  51,   6,1.04000,  36.0319,1.10000,0.90000,1.10000,0.90000
   115,'R.TURBIO    ', 220.0000,1,  21,  52,   1,1.01391,   7.7687,1.10000,0.90000,1.10000,0.90000
   117,'ESPERANZ    ', 220.0000,1,  21,  52,   1,1.00585,   8.2496,1.10000,0.90000,1.10000,0.90000
   118,'RGALLEGO    ', 220.0000,1,  21,  52,   1,1.00870,   7.2384,1.10000,0.90000,1.10000,0.90000
   190,'ALTG09CC    ',  10.5000,2,  16,  53,   8,1.02191,  19.0074,1.10000,0.90000,1.10000,0.90000
   191,'ALTG10CC    ',  10.5000,2,  16,  53,   8,1.02191,  19.0074,1.10000,0.90000,1.10000,0.90000
   192,'ALTV11CC    ',  10.5000,2,  16,  53,   8,1.02374,  17.9595,1.10000,0.90000,1.10000,0.90000
   193,'SERIE DT    ', 132.0000,1,  16,  53,   2,1.00000,  12.5909,1.10000,0.90000,1.10000,0.90000
   200,'PMADR330    ', 330.0000,1,  21,  51,   1,1.01554,  12.7068,1.10000,0.90000,1.10000,0.90000
   207,'ALUATG07    ',  11.0000,2,  16,  53,   8,1.02174,   6.6555,1.10000,0.90000,1.10000,0.90000
   208,'ALUATG08    ',  11.0000,2,  16,  53,   8,1.02174,   6.6555,1.10000,0.90000,1.10000,0.90000
   209,'ALUATV01    ',  11.0000,2,  16,  53,   8,1.02174,   6.6555,1.10000,0.90000,1.10000,0.90000
   210,'APPA330A    ', 330.0000,1,  16,  53,   2,1.01489,  12.6940,1.10000,0.90000,1.10000,0.90000
   211,'APPA330B    ', 330.0000,1,  16,  53,   2,1.01489,  12.7067,1.10000,0.90000,1.10000,0.90000
   212,'AL-CE0A2    ',  33.0000,1,  16,  53,   2,1.02174,   6.6555,1.10000,0.90000,1.10000,0.90000
   213,'APPA330C    ', 330.0000,1,  16,  53,   2,1.01489,  12.7066,1.10000,0.90000,1.10000,0.90000
   215,'LA FLECHA   ', 132.0000,1,  16,  53,  10,1.00250,  12.7039,1.10000,0.90000,1.10000,0.90000
   216,'AL-CE0A4    ',  33.0000,1,  16,  53,   2,1.02174,   6.6555,1.10000,0.90000,1.10000,0.90000
   217,'AL-CE0A5    ',  33.0000,1,  16,  53,   2,1.02174,   6.6555,1.10000,0.90000,1.10000,0.90000
   218,'AL-CE0A3    ',  33.0000,1,  16,  53,   2,1.02174,   6.6555,1.10000,0.90000,1.10000,0.90000
   219,'AEG         ',  13.2000,2,  16,  53,   4,1.02174,   6.6555,1.10000,0.90000,1.10000,0.90000
   220,'PMADRYN1    ', 132.0000,1,  21,  51,   1,1.03792,  12.2538,1.10000,0.90000,1.10000,0.90000
   221,'PMADRYN2    ', 132.0000,1,  21,  51,  10,1.01562,  10.0931,1.10000,0.90000,1.10000,0.90000
   222,'AL-CE0A1    ',  33.0000,1,  16,  53,   2,1.00160,  12.6035,1.10000,0.90000,1.10000,0.90000
   223,'LB ESTE     ', 132.0000,1,  21,  51,  10,1.01800,  12.6692,1.10000,0.90000,1.10000,0.90000
   224,'NPMAD330    ', 330.0000,1,  21,  51,  10,1.01566,  12.6776,1.10000,0.90000,1.10000,0.90000
   226,'LB OESTE    ', 132.0000,1,  21,  51,  10,1.02936,  12.0358,1.10000,0.90000,1.10000,0.90000
   227,'SERV AUX    ',  33.0000,1,  16,  53,   2,1.02174,   6.6555,1.10000,0.90000,1.10000,0.90000
   230,'DGPAL132    ', 132.0000,1,  21,  51,  10,1.03385,  12.1491,1.10000,0.90000,1.10000,0.90000
   240,'TRELW132    ', 132.0000,1,  21,  51,  10,1.01671,  13.6214,1.10000,0.90000,1.10000,0.90000
   242,'TREW13.2    ',  13.2000,2,  21,  51,   1,0.98489,   9.9834,1.10000,0.90000,1.10000,0.90000
   243,'RAWSON      ', 132.0000,1,  21,  51,   1,1.02143,  14.3264,1.10000,0.90000,1.10000,0.90000
   244,'TRELEW33    ',  33.0000,1,  21,  51,   1,0.98462,  10.6710,1.10000,0.90000,1.10000,0.90000
   246,'PE_PMADR    ', 132.0000,1,  21,  51,  10,1.01498,  10.9238,1.10000,0.90000,1.10000,0.90000
   250,'AMEGH132    ', 132.0000,1,  21,  51,   1,1.03786,  16.4631,1.10000,0.90000,1.10000,0.90000
   251,'AMEGHI01    ',  13.2000,2,  21,  51,   6,1.04000,  18.3213,1.10000,0.90000,1.10000,0.90000
   253,'PE_ALUAR    ', 132.0000,1,  16,  53,  10,1.00509,  14.4736,1.10000,0.90000,1.10000,0.90000
   254,'ALUA33_01   ',  33.0000,1,  16,  53,  10,0.99991,  17.6509,1.10000,0.90000,1.10000,0.90000
   255,'ALUAR33_03  ',  33.0000,1,  16,  53,  10,0.99954,  17.7748,1.10000,0.90000,1.10000,0.90000
   256,'ALUAR33_07  ',  33.0000,1,  16,  53,  10,1.00311,  17.8990,1.10000,0.90000,1.10000,0.90000
   257,'ALUAR33_09  ',  33.0000,1,  16,  53,  10,1.00352,  18.1434,1.10000,0.90000,1.10000,0.90000
   258,'PER-132     ', 132.0000,1,  21,  51,   1,1.02427,  14.7787,1.10000,0.90000,1.10000,0.90000
   259,'AL-CEB      ', 132.0000,1,  16,  53,   2,1.00000,  12.5909,1.10000,0.90000,1.10000,0.90000
   261,'AL-CEA      ', 132.0000,1,  16,  53,   2,1.00000,  12.5909,1.10000,0.90000,1.10000,0.90000
   264,'FUTAL132    ', 132.0000,1,  21,  51,  10,1.03819,  30.8650,1.10000,0.90000,1.10000,0.90000
   265,'AL-CEB0C    ',  33.0000,1,  16,  53,   2,1.00160,  12.6035,1.10000,0.90000,1.10000,0.90000
   266,'ESQUE132    ', 132.0000,1,  21,  51,  10,1.03146,  30.4443,1.10000,0.90000,1.10000,0.90000
   268,'SERIE AT    ', 132.0000,1,  16,  53,   2,1.00000,  12.5909,1.10000,0.90000,1.10000,0.90000
   269,'SERIE BT    ', 132.0000,1,  16,  53,   2,1.00000,  12.5909,1.10000,0.90000,1.10000,0.90000
   271,'ELCOIHUE    ', 132.0000,1,  21,  51,   1,1.01072,  30.0984,1.10000,0.90000,1.10000,0.90000
   272,'CHUBUNOR2   ', 132.0000,1,  21,  51,  10,1.01564,  10.8214,1.10000,0.90000,1.10000,0.90000
   273,'PMADRYN2    ', 132.0000,1,  21,  51,  10,1.01562,  10.0931,1.10000,0.90000,1.10000,0.90000
   275,'LB          ', 132.0000,1,  21,  51,  10,1.01624,  12.9182,1.10000,0.90000,1.10000,0.90000
   280,'GOLONDRI    ',  13.2000,1,  21,  51,  10,0.94639,  29.3993,1.10000,0.90000,1.10000,0.90000
   281,'LIMRN-CH    ',  13.2000,1,  21,  51,  10,0.88819,  29.2491,1.10000,0.90000,1.10000,0.90000
   282,'ELBOLSON    ',  13.2000,1,  21,  51,   1,0.84478,  29.1236,1.10000,0.90000,1.10000,0.90000
   300,'SGRAN132    ', 132.0000,1,   7,  26,   1,0.99602,   6.4627,1.10000,0.90000,1.10000,0.90000
   310,'PCOLO132    ', 132.0000,1,   7,  26,  10,0.99582,   6.4098,1.10000,0.90000,1.10000,0.90000
   311,'MALASPINA   ', 132.0000,1,  21,  51,  10,1.02557,  18.3663,1.10000,0.90000,1.10000,0.90000
   315,'RSCRUZ      ', 132.0000,1,  21,  52,   1,1.01918,   9.3729,1.10000,0.90000,1.10000,0.90000
   320,'SANOE132    ', 132.0000,1,   7,  26,   1,0.95590,   1.6570,1.10000,0.90000,1.10000,0.90000
   322,'SANES132    ', 132.0000,1,   7,  26,   1,0.95174,   1.1131,1.10000,0.90000,1.10000,0.90000
   400,'C.RIV.A1    ', 132.0000,1,  21,  51,  10,0.99975,  14.8753,1.10000,0.90000,1.10000,0.90000
   401,'C.RIV.A     ', 132.0000,1,  21,  51,  10,0.99969,  14.8704,1.10000,0.90000,1.10000,0.90000
   402,'GARAYALDE   ', 132.0000,1,  21,  51,  10,1.03589,  18.2475,1.10000,0.90000,1.10000,0.90000
   403,'HERCULES    ', 132.0000,1,  21,  52,  10,1.01580,  16.3391,1.10000,0.90000,1.10000,0.90000
   404,'ESCALANT    ', 132.0000,1,  21,  51,  10,0.99109,  15.4203,1.10000,0.90000,1.10000,0.90000
   405,'PE_MBEHR    ', 132.0000,1,  21,  51,  10,1.00178,  16.8854,1.10000,0.90000,1.10000,0.90000
   406,'CRIVTG26    ',  13.2000,2,  21,  51,   4,0.99969,  14.8704,1.10000,0.90000,1.10000,0.90000
   407,'GARA33_01   ',  33.0000,1,  21,  51,  10,1.02379,  20.5259,1.10000,0.90000,1.10000,0.90000
   408,'C.RIV.A1    ',  10.4000,1,  21,  51,   1,0.99073,  13.2786,1.10000,0.90000,1.10000,0.90000
   409,'CRIVTG21    ',  10.4000,2,  21,  51,   4,0.99073,  13.2786,1.10000,0.90000,1.10000,0.90000
   410,'C.RIV.A1    ',  66.0000,2,  21,  51,   1,0.99436,  15.6310,1.10000,0.90000,1.10000,0.90000
   411,'ESCALANT2   ', 132.0000,1,  21,  51,   1,0.99109,  15.4203,1.10000,0.90000,1.10000,0.90000
   412,'CT_MBEHR2   ', 132.0000,1,  21,  51,  10,1.00171,  16.9245,1.10000,0.90000,1.10000,0.90000
   413,'BICE33_02   ',  33.0000,1,  21,  52,  10,1.01113,  24.8751,1.10000,0.90000,1.10000,0.90000
   415,'GARA13_01   ',  13.2000,1,  21,  51,  10,1.02344,  20.6932,1.10000,0.90000,1.10000,0.90000
   416,'SEBER1      ',  66.0000,1,  21,  51,   1,1.00590,  17.4596,1.10000,0.90000,1.10000,0.90000
   417,'SEBER1_35   ',  35.0000,1,  21,  51,  10,0.98903,  20.4227,1.10000,0.90000,1.10000,0.90000
   418,'SEBER2      ',  35.0000,1,  21,  51,   1,0.99312,  20.9811,1.10000,0.90000,1.10000,0.90000
   420,'C.RIV.A1    ',  33.0000,2,  21,  51,   1,0.98994,  13.0767,1.10000,0.90000,1.10000,0.90000
   422,'CRIVTG23    ',  13.8000,2,  21,  51,   4,0.98693,  12.5005,1.10000,0.90000,1.10000,0.90000
   423,'MB_ALL_35   ',  35.0000,1,  21,  51,  10,0.99312,  20.9811,1.10000,0.90000,1.10000,0.90000
   424,'MB_JEN_35   ',  35.0000,1,  21,  51,  10,0.99312,  20.9811,1.10000,0.90000,1.10000,0.90000
   437,'CRIVTG78    ',  13.8000,2,  21,  51,   8,0.99969,  14.8704,1.10000,0.90000,1.10000,0.90000
   438,'CRIVTV25    ',  13.8000,2,  21,  51,   8,0.99969,  14.8704,1.10000,0.90000,1.10000,0.90000
   440,'VHERM132    ', 132.0000,2,  21,  51,   1,0.96770,  13.9104,1.10000,0.90000,1.10000,0.90000
   441,'SAN JOSE    ', 132.0000,1,  21,  52,   1,0.99115,  14.3755,1.10000,0.90000,1.10000,0.90000
   442,'CNEGR132    ', 132.0000,2,  21,  51,   1,0.95731,  13.3875,1.10000,0.90000,1.10000,0.90000
   444,'PAMCA132    ', 132.0000,2,  21,  51,   1,0.98189,  14.7111,1.10000,0.90000,1.10000,0.90000
   445,'TORDI132    ', 132.0000,2,  21,  51,   1,0.98091,  14.6567,1.10000,0.90000,1.10000,0.90000
   446,'LPER1132    ', 132.0000,1,  21,  52,   1,1.03417,  18.9154,1.10000,0.90000,1.10000,0.90000
   448,'LASHE132    ', 132.0000,2,  21,  52,   1,1.00579,  16.3113,1.10000,0.90000,1.10000,0.90000
   449,'DIADEMA     ', 132.0000,1,  21,  51,   1,0.99649,  15.4200,1.10000,0.90000,1.10000,0.90000
   450,'BSM132R     ', 132.0000,2,  21,  51,   1,0.99806,  14.8689,1.10000,0.90000,1.10000,0.90000
   451,'DIAD33_01   ',  33.0000,1,  21,  51,  10,0.97623,  18.1592,1.10000,0.90000,1.10000,0.90000
   453,'DIADEO01    ',   0.4000,2,  21,  51,  11,1.03000,  19.3857,1.10000,0.90000,1.10000,0.90000
   454,'C.OLIVIA    ', 132.0000,1,  21,  52,   1,1.03037,  15.8561,1.10000,0.90000,1.10000,0.90000
   455,'AIKE        ', 132.0000,1,  21,  52,   1,0.99434,  14.7864,1.10000,0.90000,1.10000,0.90000
   456,'ABASOLO     ', 132.0000,1,  21,  51,   1,1.00012,  14.9991,1.10000,0.90000,1.10000,0.90000
   457,'OROPLATA    ', 132.0000,1,  21,  52,   1,0.98245,  13.5142,1.10000,0.90000,1.10000,0.90000
   458,'C.LEON      ', 132.0000,1,  21,  52,  10,1.03367,  16.0593,1.10000,0.90000,1.10000,0.90000
   459,'PT1-132R    ', 132.0000,2,  21,  52,   1,1.02205,  13.4630,1.10000,0.90000,1.10000,0.90000
   460,'PT1-132M    ', 132.0000,1,  21,  52,   1,1.02205,  13.4630,1.10000,0.90000,1.10000,0.90000
   461,'SCN_132     ', 132.0000,1,  21,  52,  10,1.02297,  13.3773,1.10000,0.90000,1.10000,0.90000
   462,'PTRUN235    ',  35.0000,1,  21,  52,   1,1.00425,  13.7421,1.10000,0.90000,1.10000,0.90000
   463,'PTRUN35R    ',  35.0000,2,  21,  52,   1,1.00425,  13.7421,1.10000,0.90000,1.10000,0.90000
   464,'PTR1TG24    ',  13.8000,2,  21,  52,   4,0.96516,  13.7498,1.10000,0.90000,1.10000,0.90000
   466,'PTR1TG25    ',  10.5000,2,  21,  52,   4,0.96483,  13.7554,1.10000,0.90000,1.10000,0.90000
   467,'PCR         ', 132.0000,1,  21,  52,   1,1.02198,  13.5737,1.10000,0.90000,1.10000,0.90000
   468,'PTR1TG23    ',  10.5000,2,  21,  52,   4,1.00425,  13.7421,1.10000,0.90000,1.10000,0.90000
   470,'PT2--132    ', 132.0000,1,  21,  52,  10,1.02215,  13.4607,1.10000,0.90000,1.10000,0.90000
   472,'PT2-6.9     ',  35.0000,1,  21,  52,   1,1.02215,  13.4607,1.10000,0.90000,1.10000,0.90000
   474,'ELCORDON    ',  35.0000,1,  21,  52,   1,1.02412,  16.9255,1.10000,0.90000,1.10000,0.90000
   477,'MESESPI     ',  35.0000,1,  21,  52,   1,1.03056,  19.4694,1.10000,0.90000,1.10000,0.90000
   478,'MESEDI01    ',   0.4000,2,  21,  52,   4,1.00000,  25.6567,1.10000,0.90000,1.10000,0.90000
   479,'SCN_TER1    ',  33.0000,1,  21,  52,  10,1.02547,  13.1217,1.10000,0.90000,1.10000,0.90000
   480,'PDES132M    ', 132.0000,1,  21,  52,   1,1.02653,  20.7460,1.10000,0.90000,1.10000,0.90000
   483,'PS.A.BIEDMA ', 132.0000,1,  21,  52,   1,1.02861,  20.9509,1.10000,0.90000,1.10000,0.90000
   484,'SCN_TER2    ',  33.0000,1,  21,  52,  10,1.02506,  13.1634,1.10000,0.90000,1.10000,0.90000
   490,'CTPAT132    ', 132.0000,1,  21,  51,  10,1.00246,  15.1663,1.10000,0.90000,1.10000,0.90000
   491,'PATATG01    ',  11.5000,2,  21,  51,   8,1.03000,  18.9079,1.10000,0.90000,1.10000,0.90000
   492,'PATATG02    ',  11.5000,2,  21,  51,   8,1.00246,  15.1663,1.10000,0.90000,1.10000,0.90000
   493,'PATATV01    ',  11.5000,2,  21,  51,   8,1.03000,  16.3676,1.10000,0.90000,1.10000,0.90000
   494,'CHUBUNOR    ', 132.0000,1,  21,  51,  10,1.03533,  13.0580,1.10000,0.90000,1.10000,0.90000
   495,'PEBICENT    ', 132.0000,1,  21,  52,  10,1.02751,  21.2894,1.10000,0.90000,1.10000,0.90000
   500,'HERC33_01   ',  33.0000,1,  21,  52,  10,1.00774,  19.0095,1.10000,0.90000,1.10000,0.90000
   501,'PM33_01     ',  33.0000,1,  21,  51,  10,1.01193,  13.2177,1.10000,0.90000,1.10000,0.90000
   504,'RSCRUZ      ',  33.0000,1,  21,  52,   1,1.01904,   9.3487,1.10000,0.90000,1.10000,0.90000
   508,'LBVI33_02   ',  33.0000,1,  21,  51,  10,0.99155,  14.6720,1.10000,0.90000,1.10000,0.90000
   510,'PM33_02     ',  33.0000,1,  21,  51,  10,1.03770,  12.3104,1.10000,0.90000,1.10000,0.90000
   511,'PM33_01     ',  33.0000,1,  21,  51,  10,1.03625,  12.2287,1.10000,0.90000,1.10000,0.90000
   512,'C.LEON33_01 ',  33.0000,1,  21,  52,  10,1.02900,  18.4733,1.10000,0.90000,1.10000,0.90000
   513,'C.LEON33_02 ',  33.0000,1,  21,  52,  10,1.03238,  18.9308,1.10000,0.90000,1.10000,0.90000
   514,'CRITER10    ',  13.2000,1,  21,  51,  10,0.99353,  15.7512,1.10000,0.90000,1.10000,0.90000
   515,'CRITER11    ',  13.2000,1,  21,  52,  10,0.99380,  15.7116,1.10000,0.90000,1.10000,0.90000
   516,'ESQ1.TER    ',  13.2000,1,  21,  51,  10,1.00649,  26.6332,1.10000,0.90000,1.10000,0.90000
   517,'BICE33_01   ',  33.0000,1,  21,  52,  10,1.00843,  24.6874,1.10000,0.90000,1.10000,0.90000
   519,'KOST33_01   ',  33.0000,1,  21,  51,  10,0.95687,  17.2773,1.10000,0.90000,1.10000,0.90000
   520,'ESQUEL33    ',  33.0000,1,  21,  51,   1,1.00721,  26.7565,1.10000,0.90000,1.10000,0.90000
   521,'BICE33_03   ',  33.0000,1,  21,  52,  10,1.01199,  24.8873,1.10000,0.90000,1.10000,0.90000
   522,'ELCOIHUE    ',  33.0000,1,  21,  51,   1,0.95373,  28.0418,1.10000,0.90000,1.10000,0.90000
   524,'GOLONDRI    ',  33.0000,1,  21,  51,   1,0.95235,  30.1252,1.10000,0.90000,1.10000,0.90000
   526,'CHNO33_01   ',  33.0000,1,  21,  51,  10,1.01812,  15.2858,1.10000,0.90000,1.10000,0.90000
   527,'ELBOLSON    ',  33.0000,1,  21,  51,  10,0.98432,  31.5545,1.10000,0.90000,1.10000,0.90000
   528,'R.ESCONDIDO ',  33.0000,1,  21,  51,  10,1.01410,  34.1935,1.10000,0.90000,1.10000,0.90000
   532,'LBVI33_03   ',  33.0000,1,  21,  51,  10,0.99402,  14.7842,1.10000,0.90000,1.10000,0.90000
   533,'PEM33_01    ',  33.0000,1,  21,  51,  10,1.00187,  13.7422,1.10000,0.90000,1.10000,0.90000
   534,'PEM33_02    ',  33.0000,1,  21,  51,  10,1.00553,  14.0713,1.10000,0.90000,1.10000,0.90000
   535,'CTMB36_01   ',  36.7000,1,  21,  51,   1,0.98406,  15.6539,1.10000,0.90000,1.10000,0.90000
   536,'MBE2DI01    ',  11.0000,2,  21,  51,  10,1.00000,  17.1535,1.10000,0.90000,1.10000,0.90000
   537,'COIHU6_01   ',   6.6000,1,  21,  51,  10,0.95374,  28.0421,1.10000,0.90000,1.10000,0.90000
   538,'LGO-EBL     ',  33.0000,1,  21,  51,  10,0.95714,  30.3280,1.10000,0.90000,1.10000,0.90000
   539,'LPU-EBL     ',  33.0000,1,  21,  51,  10,0.97051,  30.9144,1.10000,0.90000,1.10000,0.90000
   540,'HERC33_02   ',  33.0000,1,  21,  52,  10,1.00581,  18.8317,1.10000,0.90000,1.10000,0.90000
   541,'PEM33_03    ',  33.0000,1,  21,  51,  10,1.01164,  15.0507,1.10000,0.90000,1.10000,0.90000
   542,'PM33_02     ',  33.0000,1,  21,  51,  10,1.01514,  10.2342,1.10000,0.90000,1.10000,0.90000
   544,'DIAD33_02   ',  33.0000,1,  21,  51,  10,0.97623,  18.1592,1.10000,0.90000,1.10000,0.90000
   545,'ESP.TER1    ',  33.0000,1,  21,  52,   1,0.99484,   8.1625,1.10000,0.90000,1.10000,0.90000
   546,'ESP.TER2    ',  33.0000,1,  21,  52,   1,1.05954,   7.7638,1.10000,0.90000,1.10000,0.90000
   549,'KOST33_02   ',  33.0000,1,  21,  51,  10,0.96428,  17.2033,1.10000,0.90000,1.10000,0.90000
   550,'CHNO33_02   ',  33.0000,1,  21,  51,  10,1.01748,  15.8882,1.10000,0.90000,1.10000,0.90000
   551,'MALAS33_01  ',  33.0000,1,  21,  51,  10,1.00703,  20.9411,1.10000,0.90000,1.10000,0.90000
   552,'MALAS33_02  ',  33.0000,1,  21,  51,  10,1.00828,  21.1141,1.10000,0.90000,1.10000,0.90000
   553,'DIAD33_03   ',  33.0000,1,  21,  51,  10,0.98514,  18.5325,1.10000,0.90000,1.10000,0.90000
   554,'SCN_TER3    ',  33.0000,1,  21,  52,  10,1.02137,  13.5434,1.10000,0.90000,1.10000,0.90000
   556,'R.TURBIO33  ',  33.0000,1,  21,  52,   1,0.98940,   7.2233,1.10000,0.90000,1.10000,0.90000
   557,'R.TURBIO13  ',  13.2000,1,  21,  52,  10,0.98893,   7.1667,1.10000,0.90000,1.10000,0.90000
   558,'CHNO33_03   ',  33.0000,1,  21,  51,  10,1.00891,  13.0150,1.10000,0.90000,1.10000,0.90000
   559,'CHNO33_04   ',  33.0000,1,  21,  51,  10,1.00925,  13.4668,1.10000,0.90000,1.10000,0.90000
   560,'PELB33_01   ',  33.0000,1,  21,  51,  10,1.00634,  17.1303,1.10000,0.90000,1.10000,0.90000
   561,'PELB33_02   ',  33.0000,1,  21,  51,  10,1.00985,  17.5330,1.10000,0.90000,1.10000,0.90000
   562,'PELB33_05   ',  33.0000,1,  21,  51,  10,1.00517,  17.1434,1.10000,0.90000,1.10000,0.90000
   563,'PELB33_06   ',  33.0000,1,  21,  51,  10,1.00759,  17.3493,1.10000,0.90000,1.10000,0.90000
   564,'PELB33_03   ',  33.0000,1,  21,  51,  10,1.00530,  17.3970,1.10000,0.90000,1.10000,0.90000
   565,'PELB33_04   ',  33.0000,1,  21,  51,  10,1.00836,  17.5781,1.10000,0.90000,1.10000,0.90000
   566,'PELB33_07   ',  33.0000,1,  21,  51,  10,1.00279,  15.7665,1.10000,0.90000,1.10000,0.90000
   567,'PELB33_08   ',  33.0000,1,  21,  51,  10,1.00775,  16.2074,1.10000,0.90000,1.10000,0.90000
   568,'LBVI33_01   ',  33.0000,1,  21,  51,  10,0.99151,  14.6561,1.10000,0.90000,1.10000,0.90000
   570,'PER-33      ',  33.0000,1,  21,  51,  10,0.98561,  17.7400,1.10000,0.90000,1.10000,0.90000
   571,'PER-33      ',  33.0000,1,  21,  51,  10,0.98821,  17.8654,1.10000,0.90000,1.10000,0.90000
   572,'LBVI33_04   ',  33.0000,1,  21,  51,  10,0.99353,  14.7652,1.10000,0.90000,1.10000,0.90000
   573,'CHNO33_02   ',  33.0000,1,  21,  51,  10,1.01986,  15.5043,1.10000,0.90000,1.10000,0.90000
   574,'CHNO33_05   ',  33.0000,1,  21,  51,  10,1.00921,  13.7017,1.10000,0.90000,1.10000,0.90000
   575,'CHNO33_06   ',  33.0000,1,  21,  51,  10,1.00865,  13.2595,1.10000,0.90000,1.10000,0.90000
   576,'FLECEO01_33 ',  33.0000,1,  16,  53,  10,0.99001,  15.8165,1.10000,0.90000,1.10000,0.90000
   577,'FLECEO02_33 ',  33.0000,1,  16,  53,  10,0.99001,  15.8165,1.10000,0.90000,1.10000,0.90000
   578,'BEHR33_1    ',  33.0000,1,  21,  51,  10,1.01061,  19.5009,1.10000,0.90000,1.10000,0.90000
   579,'FUTA33_02   ',  33.0000,1,  21,  51,  10,1.04048,  31.2692,1.10000,0.90000,1.10000,0.90000
   580,'CHNO33_03   ',  33.0000,1,  21,  51,  10,1.01854,  15.2724,1.10000,0.90000,1.10000,0.90000
   581,'FLECEO03_33 ',  33.0000,1,  16,  53,  10,0.99001,  15.8165,1.10000,0.90000,1.10000,0.90000
...
0 / END OF BUS DATA, BEGIN LOAD DATA
@!   I,'ID',STAT,AREA,ZONE,      PL,        QL,        IP,        IQ,        YP,        YQ, OWNER,SCALE,INTRPT,  DGENP,     DGENQ, DGENF
   115,'1 ',   1,  21,  52,     4.702,     1.968,     0.000,     0.000,     0.000,     0.000,   1,    1,  0,     0.000,     0.000,   0
   118,'1 ',   1,  21,  52,    23.053,     4.446,     0.000,     0.000,     0.000,     0.000,   1,    1,  0,     0.000,     0.000,   0
   193,'1 ',   1,  16,  53,   240.000,   131.000,     0.000,     0.000,     0.000,     0.000,   2,    0,  0,     0.000,     0.000,   0
   217,'1 ',   1,  16,  53,   102.000,    60.300,     0.000,     0.000,     0.000,     0.000,   2,    0,  0,     0.000,     0.000,   0
   222,'1 ',   0,  16,  53,    72.000,    40.800,     0.000,     0.000,     0.000,     0.000,   2,    0,  0,     0.000,     0.000,   0
   227,'1 ',   1,  16,  53,    26.000,    12.600,     0.000,     0.000,     0.000,     0.000,   3,    0,  0,     0.000,     0.000,   0
   230,'1 ',   1,  21,  51,    36.766,    12.876,     0.000,     0.000,     0.000,     0.000,   1,    1,  0,     0.000,     0.000,   0
   242,'1 ',   0,  21,  51,     5.458,     2.797,     0.000,     0.000,     0.000,     0.000,   1,    1,  0,     0.000,     0.000,   0
   242,'2 ',   0,  21,  51,    12.621,     5.964,     0.000,     0.000,     0.000,     0.000,   1,    1,  0,     0.000,     0.000,   0
   242,'3 ',   1,  21,  51,    13.314,     6.443,     0.000,     0.000,     0.000,     0.000,   1,    1,  0,     0.000,     0.000,   0
   243,'1 ',   1,  21,  51,    14.942,     3.334,     0.000,     0.000,     0.000,     0.000,   1,    1,  0,     0.000,     0.000,   0
   244,'1 ',   1,  21,  51,    31.380,    14.466,     0.000,     0.000,     0.000,     0.000,   1,    1,  0,     0.000,     0.000,   0
   250,'1 ',   1,  21,  51,     0.510,     0.214,     0.000,     0.000,     0.000,     0.000,   1,    1,  0,     0.000,     0.000,   0
   250,'2 ',   0,  21,  51,     0.000,     0.000,     0.000,     0.000,     0.000,     0.000,   1,    1,  0,     0.000,     0.000,   0
   259,'1 ',   1,  16,  53,    20.000,    11.000,     0.000,     0.000,     0.000,     0.000,   3,    0,  0,     0.000,     0.000,   0
   265,'1 ',   0,  16,  53,    72.000,    40.800,     0.000,     0.000,     0.000,     0.000,   2,    0,  0,     0.000,     0.000,   0
   268,'1 ',   1,  16,  53,   180.000,   115.300,     0.000,     0.000,     0.000,     0.000,   2,    0,  0,     0.000,     0.000,   0
   269,'1 ',   1,  16,  53,   180.000,   115.300,     0.000,     0.000,     0.000,     0.000,   2,    0,  0,     0.000,     0.000,   0
   282,'1 ',   1,  21,  51,     1.596,     0.768,     0.000,     0.000,     0.000,     0.000,   1,    1,  0,     0.000,     0.000,   0
   300,'1 ',   1,   7,  26,     4.882,     1.926,     0.000,     0.000,     0.000,     0.000,   1,    1,  0,     0.000,     0.000,   0
   310,'1 ',   1,   7,  26,     1.190,     0.460,     0.000,     0.000,     0.000,     0.000,   2,    0,  0,     0.000,     0.000,   0
   315,'1 ',   1,  21,  52,     1.592,     0.521,     0.000,     0.000,     0.000,     0.000,   1,    1,  0,     0.000,     0.000,   0
   315,'2 ',   1,  21,  52,     1.592,     0.521,     0.000,     0.000,     0.000,     0.000,   1,    1,  0,     0.000,     0.000,   0
   320,'1 ',   1,   7,  26,    15.935,     5.235,     0.000,     0.000,     0.000,     0.000,   1,    1,  0,     0.000,     0.000,   0
   322,'1 ',   1,   7,  26,    17.386,     3.526,     0.000,     0.000,     0.000,     0.000,   1,    1,  0,     0.000,     0.000,   0
   405,'1 ',   0,  21,  51,    33.888,    11.544,     0.000,     0.000,     0.000,     0.000,   2,    0,  0,     0.000,     0.000,   0
   408,'1 ',   0,  21,  51,     0.000,     0.000,     0.000,     0.000,     0.000,     0.000,   1,    1,  0,     0.000,     0.000,   0
   409,'1 ',   1,  21,  52,     4.994,     1.709,     0.000,     0.000,     0.000,     0.000,   1,    1,  0,     0.000,     0.000,   0
   409,'2 ',   0,  21,  52,     7.989,     2.734,     0.000,     0.000,     0.000,     0.000,   1,    1,  0,     0.000,     0.000,   0
   409,'3 ',   0,  21,  51,     2.207,     0.617,     0.000,     0.000,     0.000,     0.000,   1,    1,  0,     0.000,     0.000,   0
   410,'2 ',   0,  21,  51,    14.099,     6.455,     0.000,     0.000,     0.000,     0.000,   1,    1,  0,     0.000,     0.000,   0
   410,'3 ',   0,  21,  51,     0.134,     0.551,     0.000,     0.000,     0.000,     0.000,   1,    1,  0,     0.000,     0.000,   0
   411,'1 ',   1,  21,  51,    34.000,    22.400,     0.000,     0.000,     0.000,     0.000,   2,    0,  0,     0.000,     0.000,   0
   416,'1 ',   1,  21,  51,     0.656,     0.246,     0.000,     0.000,     0.000,     0.000,   1,    1,  0,     0.000,     0.000,   0
   418,'1 ',   1,  21,  51,    16.300,     7.000,     0.000,     0.000,     0.000,     0.000,   1,    0,  0,     0.000,     0.000,   0
   420,'1 ',   1,  21,  51,    13.598,     5.875,     0.000,     0.000,     0.000,     0.000,   1,    1,  0,     0.000,     0.000,   0
   420,'2 ',   1,  21,  51,     8.856,     3.607,     0.000,     0.000,     0.000,     0.000,   1,    1,  0,     0.000,     0.000,   0
   420,'3 ',   0,  21,  51,     4.900,     2.000,     0.000,     0.000,     0.000,     0.000,   1,    1,  0,     0.000,     0.000,   0
   422,'1 ',   1,  21,  51,    13.010,     3.544,     0.000,     0.000,     0.000,     0.000,   1,    1,  0,     0.000,     0.000,   0
   440,'1 ',   1,  21,  51,     9.816,     5.676,     0.000,     0.000,     0.000,     0.000,   1,    1,  0,     0.000,     0.000,   0
   440,'2 ',   0,  21,  51,    12.500,     4.000,     0.000,     0.000,     0.000,     0.000,   1,    1,  0,     0.000,     0.000,   0
   440,'3 ',   0,  21,  51,    14.988,     4.265,     0.000,     0.000,     0.000,     0.000,   1,    1,  0,     0.000,     0.000,   0
   441,'1 ',   1,  21,  52,     3.897,     1.685,     0.000,     0.000,     0.000,     0.000,   1,    1,  0,     0.000,     0.000,   0
   442,'1 ',   1,  21,  51,    11.304,     7.787,     0.000,     0.000,     0.000,     0.000,   1,    1,  0,     0.000,     0.000,   0
   442,'2 ',   0,  21,  51,     5.571,     2.551,     0.000,     0.000,     0.000,     0.000,   1,    1,  0,     0.000,     0.000,   0
   442,'3 ',   0,  21,  51,     2.500,     1.428,     0.000,     0.000,     0.000,     0.000,   1,    1,  0,     0.000,     0.000,   0
   444,'1 ',   1,  21,  51,    16.167,     3.652,     0.000,     0.000,     0.000,     0.000,   1,    1,  0,     0.000,     0.000,   0
   444,'2 ',   0,  21,  51,    12.166,     5.570,     0.000,     0.000,     0.000,     0.000,   1,    1,  0,     0.000,     0.000,   0
   444,'3 ',   0,  21,  51,     3.500,     0.658,     0.000,     0.000,     0.000,     0.000,   1,    1,  0,     0.000,     0.000,   0
   445,'1 ',   1,  21,  51,     5.132,     1.516,     0.000,     0.000,     0.000,     0.000,   1,    1,  0,     0.000,     0.000,   0
   445,'2 ',   0,  21,  51,     9.096,     4.165,     0.000,     0.000,     0.000,     0.000,   1,    1,  0,     0.000,     0.000,   0
   445,'3 ',   0,  21,  51,     3.500,     0.000,     0.000,     0.000,     0.000,     0.000,   1,    1,  0,     0.000,     0.000,   0
   446,'1 ',   1,  21,  52,    15.039,     8.282,     0.000,     0.000,     0.000,     0.000,   1,    1,  0,     0.000,     0.000,   0
   448,'1 ',   1,  21,  52,    26.066,    14.979,     0.000,     0.000,     0.000,     0.000,   1,    1,  0,     0.000,     0.000,   0
   448,'2 ',   0,  21,  52,    26.500,    11.661,     0.000,     0.000,     0.000,     0.000,   1,    1,  0,     0.000,     0.000,   0
   448,'3 ',   0,  21,  52,    10.299,     5.199,     0.000,     0.000,     0.000,     0.000,   1,    1,  0,     0.000,     0.000,   0
   450,'1 ',   0,  21,  51,    30.100,    15.400,     0.000,     0.000,     0.000,     0.000,   1,    1,  0,     0.000,     0.000,   0
   450,'2 ',   0,  21,  51,     0.000,     0.000,     0.000,     0.000,     0.000,     0.000,   1,    1,  0,     0.000,     0.000,   0
   450,'3 ',   0,  21,  51,     0.000,     0.000,     0.000,     0.000,     0.000,     0.000,   1,    1,  0,     0.000,     0.000,   0
   450,'4 ',   1,  21,  52,    28.230,     7.792,     0.000,     0.000,     0.000,     0.000,   1,    1,  0,     0.000,     0.000,   0
   451,'1 ',   1,  21,  51,     2.566,     0.257,     0.000,     0.000,     0.000,     0.000,   1,    1,  0,     0.000,     0.000,   0
   454,'1 ',   1,  21,  52,     9.239,     3.507,     0.000,     0.000,     0.000,     0.000,   1,    1,  0,     0.000,     0.000,   0
   456,'1 ',   1,  21,  51,    17.065,     6.951,     0.000,     0.000,     0.000,     0.000,   1,    1,  0,     0.000,     0.000,   0
   457,'1 ',   1,  21,  52,    16.500,     4.500,     0.000,     0.000,     0.000,     0.000,   2,    0,  0,     0.000,     0.000,   0
   459,'2 ',   0,  21,  52,     5.276,     1.803,     0.000,     0.000,     0.000,     0.000,   1,    1,  0,     0.000,     0.000,   0
   459,'3 ',   0,  21,  52,     7.732,     3.575,     0.000,     0.000,     0.000,     0.000,   1,    1,  0,     0.000,     0.000,   0
   460,'1 ',   1,  21,  52,    16.872,     6.927,     0.000,     0.000,     0.000,     0.000,   1,    1,  0,     0.000,     0.000,   0
   462,'1 ',   0,  21,  52,    27.630,    11.790,     0.000,     0.000,     0.000,     0.000,   1,    1,  0,     0.000,     0.000,   0
   463,'1 ',   1,  21,  52,     6.766,     5.187,     0.000,     0.000,     0.000,     0.000,   1,    1,  0,     0.000,     0.000,   0
   463,'2 ',   0,  21,  52,    15.000,     5.000,     0.000,     0.000,     0.000,     0.000,   1,    1,  0,     0.000,     0.000,   0
   467,'1 ',   1,  21,  52,     5.105,     1.680,     0.000,     0.000,     0.000,     0.000,   1,    1,  0,     0.000,     0.000,   0
   472,'1 ',   1,  21,  52,     0.000,     0.000,     0.000,     0.000,     0.000,     0.000,   1,    1,  0,     0.000,     0.000,   0
   472,'2 ',   0,  21,  52,     0.000,     0.000,     0.000,     0.000,     0.000,     0.000,   1,    1,  0,     0.000,     0.000,   0
   480,'1 ',   1,  21,  52,     3.650,     1.767,     0.000,     0.000,     0.000,     0.000,   1,    1,  0,     0.000,     0.000,   0
   520,'1 ',   1,  21,  51,     9.628,     3.209,     0.000,     0.000,     0.000,     0.000,   1,    1,  0,     0.000,     0.000,   0
   522,'1 ',   1,  21,  51,     8.860,     5.477,     0.000,     0.000,     0.000,     0.000,   1,    1,  0,     0.000,     0.000,   0
   524,'1 ',   1,  21,  51,     2.394,     1.149,     0.000,     0.000,     0.000,     0.000,   1,    1,  0,     0.000,     0.000,   0
   535,'1 ',   1,  21,  51,    19.800,    11.800,     0.000,     0.000,     0.000,     0.000,   2,    0,  0,     0.000,     0.000,   0
   556,'2 ',   1,  21,  52,     3.745,     1.813,     0.000,     0.000,     0.000,     0.000,   1,    1,  0,     0.000,     0.000,   0
   721,'1 ',   1,  21,  52,     6.696,     2.195,     0.000,     0.000,     0.000,     0.000,   1,    1,  0,     0.000,     0.000,   0
  1012,'99',   1,   7,  27,  1965.954,  -107.595,     0.000,     0.000,     0.000,     0.000,  10,    1,  0,     0.000,     0.000,   0
  1025,'99',   1,   7,  27,   141.231,   -56.870,     0.000,     0.000,     0.000,     0.000,  10,    1,  0,     0.000,     0.000,   0
  1201,'1 ',   1,   7,  26,    10.132,     3.377,     0.000,     0.000,     0.000,     0.000,   1,    1,  0,     0.000,     0.000,   0
  1205,'1 ',   1,   7,  26,     8.916,     2.837,     0.000,     0.000,     0.000,     0.000,   1,    1,  0,     0.000,     0.000,   0
  1207,'1 ',   1,   7,  27,     8.558,     2.576,     0.000,     0.000,     0.000,     0.000,   1,    1,  0,     0.000,     0.000,   0
  1208,'1 ',   1,   7,  27,     2.034,     1.199,     0.000,     0.000,     0.000,     0.000,   1,    1,  0,     0.000,     0.000,   0
  1209,'1 ',   1,   7,  26,    13.206,     5.135,     0.000,     0.000,     0.000,     0.000,   1,    1,  0,     0.000,     0.000,   0
  1213,'1 ',   1,   7,  26,     8.000,     2.500,     0.000,     0.000,     0.000,     0.000,   2,    0,  0,     0.000,     0.000,   0
  1215,'1 ',   1,   7,  27,     1.150,     0.473,     0.000,     0.000,     0.000,     0.000,   1,    1,  0,     0.000,     0.000,   0
  1216,'1 ',   1,   7,  27,    17.157,     7.194,     0.000,     0.000,     0.000,     0.000,   1,    1,  0,     0.000,     0.000,   0
  1222,'1 ',   1,   7,  27,     7.500,     3.400,     0.000,     0.000,     0.000,     0.000,   1,    0,  0,     0.000,     0.000,   0
  1223,'1 ',   1,   7,  27,    24.700,     9.000,     0.000,     0.000,     0.000,     0.000,   1,    0,  0,     0.000,     0.000,   0
  1228,'1 ',   1,   7,  27,    10.659,     5.016,     0.000,     0.000,     0.000,     0.000,   1,    1,  0,     0.000,     0.000,   0
  1229,'1 ',   1,   7,  26,    22.696,    12.294,     0.000,     0.000,     0.000,     0.000,   1,    1,  0,     0.000,     0.000,   0
  1230,'1 ',   1,   7,  26,    11.154,     4.583,     0.000,     0.000,     0.000,     0.000,   1,    1,  0,     0.000,     0.000,   0
  1231,'2 ',   1,   7,  26,    10.410,     4.490,     0.000,     0.000,     0.000,     0.000,   1,    0,  0,     0.000,     0.000,   0
  1233,'2 ',   1,   7,  26,     7.310,     3.490,     0.000,     0.000,     0.000,     0.000,   1,    0,  0,     0.000,     0.000,   0
  1234,'1 ',   1,   7,  27,    17.199,     5.650,     0.000,     0.000,     0.000,     0.000,   1,    1,  0,     0.000,     0.000,   0
  1235,'1 ',   1,   7,  26,    22.408,     7.794,     0.000,     0.000,     0.000,     0.000,   1,    1,  0,     0.000,     0.000,   0
  1240,'1 ',   1,   7,  27,     5.542,     2.679,     0.000,     0.000,     0.000,     0.000,  10,    1,  0,     0.000,     0.000,   0
  1246,'1 ',   1,   7,  27,     3.511,     1.756,     0.000,     0.000,     0.000,     0.000,   1,    1,  0,     0.000,     0.000,   0
  1249,'1 ',   1,   7,  26,    14.320,     6.904,     0.000,     0.000,     0.000,     0.000,   1,    1,  0,     0.000,     0.000,   0
  1252,'1 ',   1,   7,  26,    43.685,    11.575,     0.000,     0.000,     0.000,     0.000,   1,    1,  0,     0.000,     0.000,   0
  1254,'1 ',   1,   7,  27,    44.482,    23.980,     0.000,     0.000,     0.000,     0.000,   1,    1,  0,     0.000,     0.000,   0
  1261,'1 ',   1,   7,  27,    21.317,     9.279,     0.000,     0.000,     0.000,     0.000,   1,    1,  0,     0.000,     0.000,   0
  1262,'1 ',   1,   7,  27,    18.400,     6.600,     0.000,     0.000,     0.000,     0.000,   1,    0,  0,     0.000,     0.000,   0
  1264,'1 ',   1,   7,  26,    18.589,     7.640,     0.000,     0.000,     0.000,     0.000,   1,    1,  0,     0.000,     0.000,   0
  1266,'1 ',   1,   7,  27,     1.396,     0.574,     0.000,     0.000,     0.000,     0.000,   1,    1,  0,     0.000,     0.000,   0
  1267,'1 ',   1,   7,  27,     9.593,     4.389,     0.000,     0.000,     0.000,     0.000,   1,    1,  0,     0.000,     0.000,   0
  1270,'1 ',   1,   7,  27,     0.656,     0.270,     0.000,     0.000,     0.000,     0.000,   1,    1,  0,     0.000,     0.000,   0
  1272,'1 ',   1,   7,  26,     6.927,     1.701,     0.000,     0.000,     0.000,     0.000,   1,    1,  0,     0.000,     0.000,   0
  1274,'1 ',   1,   7,  27,    17.448,     4.237,     0.000,     0.000,     0.000,     0.000,   1,    1,  0,     0.000,     0.000,   0
  1278,'1 ',   1,   7,  27,     7.626,     3.134,     0.000,     0.000,     0.000,     0.000,   1,    1,  0,     0.000,     0.000,   0
  1280,'1 ',   1,   7,  27,     3.000,     1.000,     0.000,     0.000,     0.000,     0.000,   2,    0,  0,     0.000,     0.000,   0
  1283,'1 ',   1,   7,  27,     9.279,     3.511,     0.000,     0.000,     0.000,     0.000,   1,    1,  0,     0.000,     0.000,   0
  1290,'1 ',   1,   7,  26,     3.315,     1.362,     0.000,     0.000,     0.000,     0.000,   1,    1,  0,     0.000,     0.000,   0
  1294,'1 ',   1,   7,  26,    12.100,     6.200,     0.000,     0.000,     0.000,     0.000,   2,    0,  0,     0.000,     0.000,   0
  1296,'1 ',   1,   7,  26,    20.820,     7.609,     0.000,     0.000,     0.000,     0.000,   1,    1,  0,     0.000,     0.000,   0
  1400,'1 ',   0,   7,  27,    21.000,     6.900,     0.000,     0.000,     0.000,     0.000,   1,    1,  0,     0.000,     0.000,   0
  1400,'S2',   0,   7,  27,     0.084,     0.063,     0.000,     0.000,     0.000,     0.000,   1,    1,  0,     0.000,     0.000,   0
  1500,'1 ',   1,   7,  27,     2.971,     1.221,     0.000,     0.000,     0.000,     0.000,   1,    1,  0,     0.000,     0.000,   0
  1501,'1 ',   1,   7,  27,     2.971,     1.221,     0.000,     0.000,     0.000,     0.000,   1,    1,  0,     0.000,     0.000,   0
  1503,'1 ',   1,   7,  25,     3.210,     0.653,     0.000,     0.000,     0.000,     0.000,   1,    1,  0,     0.000,     0.000,   0
  1504,'1 ',   1,   7,  27,    34.000,    13.600,     0.000,     0.000,     0.000,     0.000,   1,    0,  0,     0.000,     0.000,   0
  1508,'1 ',   1,   7,  25,    19.983,     7.851,     0.000,     0.000,     0.000,     0.000,   1,    1,  0,     0.000,     0.000,   0
  1511,'1 ',   1,   7,  27,     3.515,     1.305,     0.000,     0.000,     0.000,     0.000,   1,    1,  0,     0.000,     0.000,   0
  1514,'1 ',   1,   7,  26,    22.000,     6.333,     0.000,     0.000,     0.000,     0.000,   2,    0,  0,     0.000,     0.000,   0
  1515,'1 ',   1,   7,  27,     3.515,     1.305,     0.000,     0.000,     0.000,     0.000,   1,    1,  0,     0.000,     0.000,   0
  1530,'2 ',   0,   7,  27,    29.000,     9.500,     0.000,     0.000,     0.000,     0.000,   1,    1,  0,     0.000,     0.000,   0
  1540,'1 ',   1,   7,  27,     5.455,     2.303,     0.000,     0.000,     0.000,     0.000,  10,    1,  0,     0.000,     0.000,   0
  1546,'1 ',   1,   7,  27,     2.061,     0.606,     0.000,     0.000,     0.000,     0.000,  10,    1,  0,     0.000,     0.000,   0
  1563,'1 ',   1,   7,  27,    11.286,     4.514,     0.000,     0.000,     0.000,     0.000,   1,    1,  0,     0.000,     0.000,   0
  1566,'1 ',   1,   7,  26,     8.511,     2.837,     0.000,     0.000,     0.000,     0.000,   1,    1,  0,     0.000,     0.000,   0
  1568,'1 ',   1,   7,  26,     1.959,     0.804,     0.000,     0.000,     0.000,     0.000,   1,    1,  0,     0.000,     0.000,   0
  1570,'1 ',   1,   7,  26,     3.550,     1.459,     0.000,     0.000,     0.000,     0.000,   1,    1,  0,     0.000,     0.000,   0
  1572,'1 ',   1,   7,  26,     1.836,     0.755,     0.000,     0.000,     0.000,     0.000,   1,    1,  0,     0.000,     0.000,   0
  1574,'1 ',   1,   7,  26,    55.239,    13.327,     0.000,     0.000,     0.000,     0.000,   1,    1,  0,     0.000,     0.000,   0
  1581,'1 ',   1,   7,  26,    12.689,     4.230,     0.000,     0.000,     0.000,     0.000,   1,    1,  0,     0.000,     0.000,   0
  1606,'1 ',   1,   7,  27,    12.000,     6.000,     0.000,     0.000,     0.000,     0.000,   3,    0,  0,     0.000,     0.000,   0
  1610,'1 ',   1,   7,  25,     6.668,     2.624,     0.000,     0.000,     0.000,     0.000,   1,    1,  0,     0.000,     0.000,   0
  1620,'1 ',   1,   7,  27,    19.152,     7.871,     0.000,     0.000,     0.000,     0.000,   1,    1,  0,     0.000,     0.000,   0
  1644,'1 ',   1,   7,  27,    15.100,     6.900,     0.000,     0.000,     0.000,     0.000,   2,    0,  0,     0.000,     0.000,   0
  1647,'1 ',   1,   7,  27,    15.000,     5.000,     0.000,     0.000,     0.000,     0.000,   2,    0,  0,     0.000,     0.000,   0
  1818,'1 ',   1,   7,  27,    14.000,     6.000,     0.000,     0.000,     0.000,     0.000,   2,    0,  0,     0.000,     0.000,   0
  1840,'1 ',   1,   7,  27,     2.232,     0.917,     0.000,     0.000,     0.000,     0.000,   1,    1,  0,     0.000,     0.000,   0
  1841,'1 ',   1,   7,  27,     0.845,     0.346,     0.000,     0.000,     0.000,     0.000,   1,    1,  0,     0.000,     0.000,   0
  1850,'1 ',   1,   7,  26,    12.141,     5.042,     0.000,     0.000,     0.000,     0.000,   1,    1,  0,     0.000,     0.000,   0
  2000,'99',   1,   5,  24,  2199.203,   131.380,     0.000,     0.000,     0.000,     0.000,  10,    1,  0,     0.000,     0.000,   0
  2625,'1 ',   1,   5,  24,     5.000,     3.500,     0.000,     0.000,     0.000,     0.000,   3,    0,  0,     0.000,     0.000,   0
  2626,'1 ',   1,   5,  24,     5.000,     3.500,     0.000,     0.000,     0.000,     0.000,   3,    0,  0,     0.000,     0.000,   0
0 / END OF LOAD DATA, BEGIN FIXED SHUNT DATA
@!   I,'ID',STATUS,  GL,        BL
  1661,'1 ',1,     0.000,     0.000
  1662,'1 ',1,     0.000,     0.000
  1663,'1 ',1,     0.000,     0.000
  1664,'1 ',1,     0.000,     0.000
  1665,'1 ',1,     0.000,     0.000
  1666,'1 ',1,     0.000,     0.000
  1691,'1 ',1,     0.000,     0.000
  1692,'1 ',1,     0.000,     0.000
0 / END OF FIXED SHUNT DATA, BEGIN GENERATOR DATA
@!   I,'ID',      PG,        QG,        QT,        QB,     VS,    IREG,     MBASE,     ZR,         ZX,         RT,         XT,     GTAP,STAT, RMPCT,      PT,        PB,    O1,    F1,  O2,    F2,  O3,    F3,  O4,    F4,WMOD, WPF,NREG
   102,'1 ',   110.000,    -7.616,    45.000,   -47.000,1.04000,   102,   140.000, 0.00000E+0, 2.20000E-1, 0.00000E+0, 0.00000E+0,1.00000,1,  100.0,   133.000,     0.000,   6,1.0000
   104,'1 ',   110.000,    -7.616,    45.000,   -47.000,1.04000,   104,   140.000, 0.00000E+0, 2.20000E-1, 0.00000E+0, 0.00000E+0,1.00000,1,  100.0,   133.000,     0.000,   6,1.0000
   106,'1 ',   110.000,    -7.616,    45.000,   -47.000,1.04000,   106,   140.000, 0.00000E+0, 2.20000E-1, 0.00000E+0, 0.00000E+0,1.00000,1,  100.0,   133.000,     0.000,   6,1.0000
   108,'1 ',   110.000,    -7.616,    45.000,   -47.000,1.04000,   108,   140.000, 0.00000E+0, 2.20000E-1, 0.00000E+0, 0.00000E+0,1.00000,1,  100.0,   133.000,     0.000,   6,1.0000
   190,'9 ',   155.000,    39.077,    99.600,   -40.800,1.00000,   259,   184.500, 0.00000E+0, 1.88000E-1, 0.00000E+0, 0.00000E+0,1.00000,1,  100.0,   165.000, -9999.000,   8,1.0000
   191,'10',   155.000,    39.077,    99.600,   -40.800,1.00000,   259,   184.500, 0.00000E+0, 1.88000E-1, 0.00000E+0, 0.00000E+0,1.00000,1,  100.0,   165.000, -9999.000,   8,1.0000
   192,'11',   130.000,    39.077,   114.000,   -80.000,1.00000,   259,   190.800, 0.00000E+0, 1.88000E-1, 0.00000E+0, 0.00000E+0,1.00000,1,  100.0,   140.000,    80.000,   8,1.0000
   207,'7 ',    38.000,    -6.250,    20.900,   -13.200,1.00000,   216,    48.240, 0.00000E+0, 1.69000E-1, 0.00000E+0, 0.00000E+0,1.00000,0,  100.0,    41.000,     0.000,   8,1.0000
   208,'8 ',    38.000,    -6.250,    28.181,   -21.273,1.00000,   216,    48.200, 0.00000E+0, 1.69000E-1, 0.00000E+0, 0.00000E+0,1.00000,0,  100.0,    49.000,     0.000,   8,1.0000
   209,'9 ',    32.000,    -6.250,    30.000,   -17.656,1.00000,   216,    50.350, 0.00000E+0, 1.83000E-1, 0.00000E+0, 0.00000E+0,1.00000,0,  100.0,    50.350,     0.000,   8,1.0000
   219,'21',    18.000,     7.511,    15.000,   -10.000,1.05000,   219,    31.500, 0.00000E+0, 1.50000E-1, 0.00000E+0, 0.00000E+0,1.00000,0,  100.0,    21.000, -9999.000,   4,1.0000
   219,'22',    18.000,     7.511,    15.000,   -10.000,1.05000,   219,    31.500, 0.00000E+0, 1.50000E-1, 0.00000E+0, 0.00000E+0,1.00000,0,  100.0,    21.000,     0.000,   4,1.0000
   242,'1 ',    -0.440,    -0.225,    -0.225,    -0.225,1.00000,   242,     0.543, 0.00000E+0, 1.57330E-1, 0.00000E+0, 0.00000E+0,1.00000,0,  100.0,  9999.000, -9999.000,   1,1.0000
   242,'2 ',    -0.659,    -0.338,    -0.338,    -0.338,1.00000,   242,     0.815, 0.00000E+0, 1.57330E-1, 0.00000E+0, 0.00000E+0,1.00000,0,  100.0,  9999.000, -9999.000,   1,1.0000
   242,'3 ',    -0.879,    -0.450,    -0.450,    -0.450,1.00000,   242,     1.087, 0.00000E+0, 1.57330E-1, 0.00000E+0, 0.00000E+0,1.00000,0,  100.0,  9999.000, -9999.000,   1,1.0000
   242,'4 ',   -11.962,    -3.730,    -3.730,    -3.730,1.00000,   242,    12.190, 0.00000E+0, 1.57330E-1, 0.00000E+0, 0.00000E+0,1.00000,0,  100.0,  9999.000, -9999.000,   1,1.0000
   251,'1 ',    10.000,     0.798,    15.000,    -6.000,1.04000,   251,    29.200, 0.00000E+0, 2.10000E-1, 0.00000E+0, 0.00000E+0,1.00000,1,  100.0,    23.400,     0.000,   6,1.0000
   406,'1 ',    25.500,   -10.000,    15.000,   -10.000,1.05000,   406,    32.250, 0.00000E+0, 1.50000E-1, 0.00000E+0, 0.00000E+0,1.00000,0,  100.0,  9999.000, -9999.000,   4,1.0000
   406,'2 ',    25.000,     1.279,    10.000,    -5.000,1.05000,   406,    22.000, 0.00000E+0, 1.52000E-1, 0.00000E+0, 0.00000E+0,1.00000,0,  100.0,  9999.000, -9999.000,   4,1.0000
   409,'1 ',    11.500,    -0.202,    12.000,    -7.000,1.03000,   409,    22.500, 0.00000E+0, 1.50000E-1, 0.00000E+0, 0.00000E+0,1.00000,0,  100.0,  9999.000, -9999.000,   4,1.0000
   410,'1 ',    -0.681,    -0.288,    -0.288,    -0.288,1.00000,   410,     0.814, 0.00000E+0, 1.57330E-1, 0.00000E+0, 0.00000E+0,1.00000,0,  100.0,  9999.000, -9999.000,   1,1.0000
   410,'2 ',    -1.022,    -0.432,    -0.432,    -0.432,1.00000,   410,     1.220, 0.00000E+0, 1.57330E-1, 0.00000E+0, 0.00000E+0,1.00000,0,  100.0,  9999.000, -9999.000,   1,1.0000
   410,'3 ',    -1.362,    -0.576,    -0.576,    -0.576,1.00000,   410,     1.627, 0.00000E+0, 1.57330E-1, 0.00000E+0, 0.00000E+0,1.00000,0,  100.0,  9999.000, -9999.000,   1,1.0000
   410,'4 ',   -19.073,    -8.800,    -8.800,    -8.800,1.00000,   410,    28.000, 0.00000E+0, 1.57330E-1, 0.00000E+0, 0.00000E+0,1.00000,0,  100.0,  9999.000, -9999.000,   1,1.0000
   420,'1 ',    -1.004,    -0.428,    -0.428,    -0.428,1.02000,   420,     1.201, 0.00000E+0, 1.57330E-1, 0.00000E+0, 0.00000E+0,1.00000,0,  100.0,  9999.000, -9999.000,   1,1.0000
   420,'2 ',    -1.506,    -0.642,    -0.642,    -0.642,1.02000,   420,     1.801, 0.00000E+0, 1.57330E-1, 0.00000E+0, 0.00000E+0,1.00000,0,  100.0,  9999.000, -9999.000,   1,1.0000
   420,'3 ',    -2.008,    -0.856,    -0.856,    -0.856,1.02000,   420,     2.402, 0.00000E+0, 1.57330E-1, 0.00000E+0, 0.00000E+0,1.00000,0,  100.0,  9999.000, -9999.000,   1,1.0000
   420,'4 ',   -33.295,   -10.000,   -10.000,   -10.000,1.02000,   420,    34.730, 0.00000E+0, 1.57330E-1, 0.00000E+0, 0.00000E+0,1.00000,0,  100.0,  9999.000, -9999.000,   1,1.0000
   422,'1 ',    16.000,     2.292,    13.000,    -7.000,0.98000,   422,    26.150, 0.00000E+0, 1.70000E-1, 0.00000E+0, 0.00000E+0,1.00000,0,  100.0,    20.500,     0.000,   4,1.0000
   437,'1 ',    20.000,     4.928,    15.000,    -5.000,1.05000,   437,    30.400, 0.00000E+0, 2.01000E-1, 0.00000E+0, 0.00000E+0,1.00000,0,  100.0,    25.000,     0.000,   8,1.0000
   437,'2 ',    20.000,     4.614,    15.000,    -5.000,1.05000,   437,    30.400, 0.00000E+0, 2.01000E-1, 0.00000E+0, 0.00000E+0,1.00000,0,  100.0,    25.000,     0.000,   8,1.0000
   438,'2 ',    20.000,     4.441,    15.000,    -5.000,1.05000,   438,    28.000, 0.00000E+0, 1.86000E-1, 0.00000E+0, 0.00000E+0,1.00000,0,  100.0,    22.600,     0.000,   8,1.0000
   440,'1 ',    -0.434,    -0.325,    -0.325,    -0.325,1.00000,   440,     0.596, 0.00000E+0, 1.57330E-1, 0.00000E+0, 0.00000E+0,1.00000,0,  100.0,  9999.000, -9999.000,   1,1.0000
   440,'2 ',    -0.650,    -0.488,    -0.488,    -0.488,1.00000,   440,     0.894, 0.00000E+0, 1.57330E-1, 0.00000E+0, 0.00000E+0,1.00000,0,  100.0,  9999.000, -9999.000,   1,1.0000
   440,'3 ',    -0.867,    -0.650,    -0.650,    -0.650,1.00000,   440,     1.192, 0.00000E+0, 1.57330E-1, 0.00000E+0, 0.00000E+0,1.00000,0,  100.0,  9999.000, -9999.000,   1,1.0000
   440,'4 ',   -12.238,    -4.000,    -4.000,    -4.000,1.00000,   440,    20.700, 0.00000E+0, 1.57330E-1, 0.00000E+0, 0.00000E+0,1.00000,0,  100.0,  9999.000, -9999.000,   1,1.0000
   442,'1 ',    -0.138,    -0.055,    -0.055,    -0.055,1.00000,   442,     0.164, 0.00000E+0, 1.57330E-1, 0.00000E+0, 0.00000E+0,1.00000,0,  100.0,  9999.000, -9999.000,   1,1.0000
   442,'2 ',    -0.208,    -0.082,    -0.082,    -0.082,1.00000,   442,     0.246, 0.00000E+0, 1.57330E-1, 0.00000E+0, 0.00000E+0,1.00000,0,  100.0,  9999.000, -9999.000,   1,1.0000
   442,'3 ',    -0.277,    -0.110,    -0.110,    -0.110,1.00000,   442,     0.327, 0.00000E+0, 1.57330E-1, 0.00000E+0, 0.00000E+0,1.00000,0,  100.0,  9999.000, -9999.000,   1,1.0000
   442,'4 ',    -6.064,    -3.000,    -3.000,    -3.000,1.00000,   442,     6.320, 0.00000E+0, 1.57330E-1, 0.00000E+0, 0.00000E+0,1.00000,0,  100.0,  9999.000, -9999.000,   1,1.0000
   444,'1 ',    -0.444,    -0.240,    -0.240,    -0.240,1.00000,   444,     0.555, 0.00000E+0, 1.57330E-1, 0.00000E+0, 0.00000E+0,1.00000,0,  100.0,  9999.000, -9999.000,   1,1.0000
   444,'2 ',    -0.665,    -0.359,    -0.359,    -0.359,1.00000,   444,     0.832, 0.00000E+0, 1.57330E-1, 0.00000E+0, 0.00000E+0,1.00000,0,  100.0,  9999.000, -9999.000,   1,1.0000
   444,'3 ',    -0.887,    -0.479,    -0.479,    -0.479,1.00000,   444,     1.109, 0.00000E+0, 1.57330E-1, 0.00000E+0, 0.00000E+0,1.00000,0,  100.0,  9999.000, -9999.000,   1,1.0000
   444,'4 ',   -14.112,    -5.900,    -5.900,    -5.900,1.00000,   444,    13.100, 0.00000E+0, 1.57330E-1, 0.00000E+0, 0.00000E+0,1.00000,0,  100.0,  9999.000, -9999.000,   1,1.0000
   445,'1 ',    -0.320,    -0.240,    -0.240,    -0.240,1.01000,   445,     0.440, 0.00000E+0, 1.57330E-1, 0.00000E+0, 0.00000E+0,1.00000,0,  100.0,  9999.000, -9999.000,   1,1.0000
   445,'2 ',    -0.480,    -0.360,    -0.360,    -0.360,1.01000,   445,     0.660, 0.00000E+0, 1.57330E-1, 0.00000E+0, 0.00000E+0,1.00000,0,  100.0,  9999.000, -9999.000,   1,1.0000
   445,'3 ',    -0.640,    -0.480,    -0.480,    -0.480,1.01000,   445,     0.880, 0.00000E+0, 1.57330E-1, 0.00000E+0, 0.00000E+0,1.00000,0,  100.0,  9999.000, -9999.000,   1,1.0000
   445,'4 ',    -8.489,    -2.800,    -2.800,    -2.800,1.01000,   445,     9.020, 0.00000E+0, 1.57330E-1, 0.00000E+0, 0.00000E+0,1.00000,0,  100.0,  9999.000, -9999.000,   1,1.0000
   448,'1 ',    -0.740,    -0.315,    -0.315,    -0.315,1.00000,   448,     0.885, 0.00000E+0, 1.57330E-1, 0.00000E+0, 0.00000E+0,1.00000,0,  100.0,  9999.000, -9999.000,   1,1.0000
   448,'2 ',    -1.110,    -0.473,    -0.473,    -0.473,1.00000,   448,     1.327, 0.00000E+0, 1.57330E-1, 0.00000E+0, 0.00000E+0,1.00000,0,  100.0,  9999.000, -9999.000,   1,1.0000
   448,'3 ',   -19.404,    -2.000,    -2.000,    -2.000,1.00000,   448,    20.000, 0.00000E+0, 1.57330E-1, 0.00000E+0, 0.00000E+0,1.00000,0,  100.0,  9999.000, -9999.000,   1,1.0000
   448,'4 ',    -8.820,    -1.500,    -1.500,    -1.500,1.00000,   448,    31.500, 0.00000E+0, 1.57330E-1, 0.00000E+0, 0.00000E+0,1.00000,0,  100.0,  9999.000, -9999.000,   1,1.0000
   450,'1 ',    -0.195,    -0.082,    -0.082,    -0.082,1.00000,   450,     0.232, 0.00000E+0, 1.57330E-1, 0.00000E+0, 0.00000E+0,1.00000,0,  100.0,  9999.000, -9999.000,   1,1.0000
   450,'2 ',    -0.292,    -0.122,    -0.122,    -0.122,1.00000,   450,     0.348, 0.00000E+0, 1.57330E-1, 0.00000E+0, 0.00000E+0,1.00000,0,  100.0,  9999.000, -9999.000,   1,1.0000
   450,'3 ',    -0.400,    -0.200,    -0.200,    -0.200,1.00000,   450,     0.464, 0.00000E+0, 1.57330E-1, 0.00000E+0, 0.00000E+0,1.00000,0,  100.0,  9999.000, -9999.000,   1,1.0000
   450,'4 ',    -5.071,    -2.100,    -2.100,    -2.100,1.00000,   450,     5.750, 0.00000E+0, 1.57330E-1, 0.00000E+0, 0.00000E+0,1.00000,0,  100.0,  9999.000, -9999.000,   1,1.0000
   453,'1 ',     3.150,     1.388,     2.520,    -2.079,1.03000,   453,     6.300, 0.00000E+0, 9.99900E+3, 0.00000E+0, 0.00000E+0,1.00000,1,  100.0,     6.300,     0.000,  11,1.0000
   459,'1 ',    -0.322,    -0.127,    -0.127,    -0.127,1.00000,   459,     0.380, 0.00000E+0, 1.57330E-1, 0.00000E+0, 0.00000E+0,1.00000,0,  100.0,  9999.000, -9999.000,   1,1.0000
   459,'2 ',    -0.482,    -0.191,    -0.191,    -0.191,1.00000,   459,     0.571, 0.00000E+0, 1.57330E-1, 0.00000E+0, 0.00000E+0,1.00000,0,  100.0,  9999.000, -9999.000,   1,1.0000
   459,'3 ',    -0.643,    -0.254,    -0.254,    -0.254,1.00000,   459,     0.761, 0.00000E+0, 1.57330E-1, 0.00000E+0, 0.00000E+0,1.00000,0,  100.0,  9999.000, -9999.000,   1,1.0000
   459,'4 ',    -5.843,    -1.800,    -1.800,    -1.800,1.00000,   459,     7.797, 0.00000E+0, 1.57330E-1, 0.00000E+0, 0.00000E+0,1.00000,0,  100.0,  9999.000, -9999.000,   1,1.0000
   463,'1 ',     1.350,     0.729,     0.729,    -0.729,1.00000,   463,     1.688, 0.00000E+0, 1.57330E-1, 0.00000E+0, 0.00000E+0,1.00000,0,  100.0,  9999.000, -9999.000,   1,1.0000
   463,'2 ',     2.025,     1.093,     1.093,    -1.093,1.00000,   463,     2.531, 0.00000E+0, 1.57330E-1, 0.00000E+0, 0.00000E+0,1.00000,0,  100.0,  9999.000, -9999.000,   1,1.0000
   463,'3 ',     2.700,     1.458,     1.458,    -1.458,1.00000,   463,     3.375, 0.00000E+0, 1.57330E-1, 0.00000E+0, 0.00000E+0,1.00000,0,  100.0,  9999.000, -9999.000,   1,1.0000
   463,'4 ',   -15.986,    -7.000,    -7.000,    -7.000,1.00000,   463,    34.595, 0.00000E+0, 1.57330E-1, 0.00000E+0, 0.00000E+0,1.00000,0,  100.0,  9999.000, -9999.000,   1,1.0000
   464,'1 ',    15.000,     8.909,    10.000,    -5.000,1.00000,   464,    21.000, 0.00000E+0, 1.60000E-1, 0.00000E+0, 0.00000E+0,1.00000,0,  100.0,    15.000,     0.000,   4,1.0000
   466,'1 ',    15.000,     3.842,    10.000,    -5.000,1.00000,   466,    22.500, 0.00000E+0, 1.60000E-1, 0.00000E+0, 0.00000E+0,1.00000,0,  100.0,    15.000,     0.000,   4,1.0000
   468,'1 ',    15.000,     0.799,    15.000,    -5.000,1.02000,   468,    22.000, 0.00000E+0, 1.70000E-1, 0.00000E+0, 0.00000E+0,1.00000,0,  100.0,    15.000,     0.000,   4,1.0000
   478,'1 ',    10.000,    -2.181,    10.500,    -4.750,1.00000,   478,    15.750, 0.00000E+0, 2.10000E-1, 0.00000E+0, 0.00000E+0,1.00000,1,  100.0,    10.800,     0.000,   4,1.0000
   491,'1 ',    30.000,    13.609,    30.000,   -12.000,1.03000,   491,    45.400, 0.00000E+0, 2.04000E-1, 0.00000E+0, 0.00000E+0,1.00000,1,  100.0,    39.300,     0.000,   8,1.0000
   492,'2 ',    30.000,    10.404,    30.000,   -12.000,1.03000,   492,    45.400, 0.00000E+0, 2.04000E-1, 0.00000E+0, 0.00000E+0,1.00000,0,  100.0,    39.300,     0.000,   8,1.0000
   493,'1 ',    20.000,    26.415,    45.000, -9999.000,1.03000,   493,    84.200, 0.00000E+0, 1.92000E-1, 0.00000E+0, 0.00000E+0,1.00000,1,  100.0,    67.000,     0.000,   8,1.0000
   536,'1 ',     8.500,     2.518,     8.820,    -5.900,1.00000,   536,    14.700, 0.00000E+0, 1.48000E-1, 0.00000E+0, 0.00000E+0,1.00000,1,  100.0,    11.760,     0.000,  10,1.0000
   536,'3 ',     8.500,     2.518,     8.820,    -5.900,1.00000,   536,    14.700, 0.00000E+0, 1.48000E-1, 0.00000E+0, 0.00000E+0,1.00000,1,  100.0,    11.760,     0.000,  10,1.0000
   536,'5 ',     8.500,     0.000,     8.820,    -5.900,1.00000,   536,    14.700, 0.00000E+0, 1.48000E-1, 0.00000E+0, 0.00000E+0,1.00000,0,  100.0,    11.760,     0.000,  10,1.0000
   601,'3 ',    28.830,   -12.175,    29.295,   -32.500,1.00000,   601,    57.660, 1.10000E-2, 4.65500E-1, 0.00000E+0, 0.00000E+0,1.00000,1,  100.0,    57.660,     0.000,  11,1.0000,   0,   1.0,   0,   1.0,   0,   1.0, 1, 1.0000
   602,'1 ',    25.200,    -5.796,    26.852,   -20.720,1.00000,   602,    50.400, 0.00000E+0, 9.99990E+4, 0.00000E+0, 0.00000E+0,1.00000,1,  100.0,    50.400,     5.400,  11,1.0000,   0,   1.0,   0,   1.0,   0,   1.0, 1, 1.0000
   604,'1 ',    61.335,    -3.052,    59.450,   -59.450,1.03000,   604,   136.300, 0.00000E+0, 1.00000E+8, 0.00000E+0, 0.00000E+0,1.00000,1,  100.0,   122.670,     0.000,  11,1.0000,   0,   1.0,   0,   1.0,   0,   1.0, 1, 1.0000
   605,'1 ',    25.200,     4.120,    24.800,   -24.800,1.00000,   605,    50.400, 0.00000E+0, 9.99900E+3, 0.00000E+0, 0.00000E+0,1.00000,1,  100.0,    50.400,     0.000,  11,1.0000,   0,   1.0,   0,   1.0,   0,   1.0, 1, 1.0000
   607,'1 ',     8.400,     2.053,     6.300,     0.000,1.00000,   607,    10.500, 0.00000E+0, 2.38000E-1, 0.00000E+0, 0.00000E+0,1.00000,1,  100.0,     8.400,     0.000,   1,1.0000
   608,'4 ',    19.710,    -4.842,    20.655,   -22.500,1.00000,   608,    39.420, 1.09000E-2, 4.62400E-1, 0.00000E+0, 0.00000E+0,1.00000,1,  100.0,    39.420,     0.000,  11,1.0000,   0,   1.0,   0,   1.0,   0,   1.0, 1, 1.0000
   609,'2 ',    14.400,     0.000,    13.700,    -9.900,1.00000,   609,    28.800, 0.00000E+0, 9.99900E+3, 0.00000E+0, 0.00000E+0,1.00000,0,  100.0,    28.800,     0.000,  11,1.0000,   0,   1.0,   0,   1.0,   0,   1.0, 1, 1.0000
   618,'2 ',    16.980,     3.257,    12.960,     0.000,1.00000,   618,    21.600, 0.00000E+0, 1.00000E-1, 0.00000E+0, 0.00000E+0,1.00000,1,  100.0,    16.980,     0.000,   7,1.0000
   619,'2 ',     8.500,     5.036,     8.820,    -5.900,1.00000,   619,    14.700, 0.00000E+0, 1.48000E-1, 0.00000E+0, 0.00000E+0,1.00000,1,  100.0,    11.760,     0.000,  10,1.0000
   619,'4 ',     8.500,     0.000,     8.820,    -5.900,1.00000,   619,    14.700, 0.00000E+0, 1.48000E-1, 0.00000E+0, 0.00000E+0,1.00000,0,  100.0,    11.760,     0.000,  10,1.0000
   620,'2 ',     4.000,    -0.731,     3.420,    -2.380,1.00000,   620,     6.100, 0.00000E+0, 2.68000E-1, 0.00000E+0, 0.00000E+0,1.00000,1,  100.0,     5.185,     0.000,   6,1.0000
   621,'1 ',    39.000,     9.999,    26.000,   -26.000,1.00000,   621,    78.000, 0.00000E+0, 9.99900E+3, 0.00000E+0, 0.00000E+0,1.00000,1,  100.0,    78.000,     0.000,  11,1.0000,   0,   1.0,   0,   1.0,   0,   1.0, 1, 1.0000
   622,'2 ',    39.000,     9.999,    26.000,   -26.000,1.00000,   622,    78.000, 0.00000E+0, 9.99900E+3, 0.00000E+0, 0.00000E+0,1.00000,1,  100.0,    78.000,     0.000,  11,1.0000,   0,   1.0,   0,   1.0,   0,   1.0, 1, 1.0000
   623,'3 ',    39.000,     9.999,    26.000,   -26.000,1.00000,   623,    78.000, 0.00000E+0, 9.99900E+3, 0.00000E+0, 0.00000E+0,1.00000,1,  100.0,    78.000,     0.000,  11,1.0000,   0,   1.0,   0,   1.0,   0,   1.0, 1, 1.0000
   624,'4 ',    39.000,     9.999,    26.000,   -26.000,1.00000,   624,    78.000, 0.00000E+0, 9.99900E+3, 0.00000E+0, 0.00000E+0,1.00000,1,  100.0,    78.000,     0.000,  11,1.0000,   0,   1.0,   0,   1.0,   0,   1.0, 1, 1.0000
   650,'1 ',    12.075,    -0.978,    12.341,    -9.366,1.02000,   650,    25.200, 0.00000E+0, 9.99900E+3, 0.00000E+0, 0.00000E+0,1.00000,1,  100.0,    24.150,     0.000,  11,1.0000,   0,   1.0,   0,   1.0,   0,   1.0, 1, 1.0000
   651,'1 ',    14.175,    -6.850,    14.432,   -11.360,1.00000,   651,    28.800, 0.00000E+0, 8.21900E-1, 0.00000E+0, 0.00000E+0,1.00000,1,  100.0,    28.350,     0.000,  11,1.0000,   0,   1.0,   0,   1.0,   0,   1.0, 1, 1.0000
   652,'1 ',    48.600,   -10.338,    51.030,   -37.910,1.00000,   652,    97.200, 0.00000E+0, 9.99990E+4, 0.00000E+0, 0.00000E+0,1.00000,1,  100.0,    97.200,     0.000,  11,1.0000,   0,   1.0,   0,   1.0,   0,   1.0, 1, 1.0000
...